/*--------------------------------*- C++ -*----------------------------------*\
| =========                 |                                                 |
| \\      /  F ield         | OpenFOAM: The Open Source CFD Toolbox           |
|  \\    /   O peration     | Version:  v1912                                 |
|   \\  /    A nd           | Website:  www.openfoam.com                      |
|    \\/     M anipulation  |                                                 |
\*---------------------------------------------------------------------------*/
FoamFile
{
    version     2.0;
    format      ascii;
    class       polyBoundaryMesh;
    location    "constant/polyMesh";
    object      boundary;
}
// * * * * * * * * * * * * * * * * * * * * * * * * * * * * * * * * * * * * * //

3
(
    left
    {
        type            wall;
        inGroups        1(wall);
        nFaces          1;
        startFace       199;
    }
    right
    {
        type            wall;
        inGroups        1(wall);
        nFaces          1;
        startFace       200;
    }
    emptyWall
    {
        type            empty;
        inGroups        1(empty);
        nFaces          800;
        startFace       201;
    }
)

// ************************************************************************* //
